[TITLE]

[JUNCTIONS]
 10                                   30.0000
 11                                   30.0000
 12                                   30.0000
 13                                   30.0000
 14                                   30.0000
 15                                   30.0000
 16                                   30.0000
 17                                   30.0000
 18                                   30.0000
 19                                   30.0000
 2                                    30.0000
 20                                   30.0000
 21                                   30.0000
 22                                   30.0000
 23                                   30.0000
 24                                   30.0000
 25                                   30.0000
 26                                   30.0000
 27                                   30.0000
 28                                   30.0000
 29                                   30.0000
 3                                    30.0000
 30                                   30.0000
 31                                   30.0000
 32                                   30.0000
 4                                    30.0000
 5                                    30.0000
 6                                    30.0000
 7                                    30.0000
 8                                    30.0000
 9                                    30.0000

[RESERVOIRS]
 1                                   100.0000 

[TANKS]

[PIPES]
 1                               1                               2                                    99.3824     966.5919     120.6030       0.0000 
 10                              10                              11                                  921.2844     686.8578     133.0270       0.0000 
 11                              11                              12                                 1282.4066     714.0202     138.9699       0.0000 
 12                              12                              13                                 3380.4614     562.5592     141.7134       0.0000 
 13                              10                              14                                  872.8325     402.7453     123.6875       0.0000 
 14                              14                              15                                  523.9441     414.1085     129.1457       0.0000 
 15                              15                              16                                  543.8557     286.8308     130.5833       0.0000 
 16                              17                              16                                 2677.5216     419.5739     123.3398       0.0000 
 17                              17                              18                                 1645.1447     514.1731     142.4109       0.0000 
 18                              18                              19                                  744.5689     614.8694     138.7044       0.0000 
 19                              19                              3                                   376.1674     656.6010     118.7704       0.0000 
 2                               2                               3                                  1276.7653     949.0917     131.9176       0.0000 
 20                              3                               20                                 2303.6825     935.7788     122.3068       0.0000 
 21                              20                              21                                 1445.8192     522.9006     131.6722       0.0000 
 22                              21                              22                                  479.4009     317.6428     135.4108       0.0000 
 23                              20                              23                                 2557.4700    1045.1727     124.8295       0.0000 
 24                              23                              24                                 1339.7866     762.4845     125.8667       0.0000 
 25                              24                              25                                 1273.7744     837.2972     123.7259       0.0000 
 26                              26                              25                                  821.4344     475.9963     118.0020       0.0000 
 27                              27                              26                                  315.7313     288.6762     136.9119       0.0000 
 28                              16                              27                                  792.3615     292.3909     128.9160       0.0000 
 29                              23                              28                                 1373.0114     374.0582     130.7270       0.0000 
 3                               3                               4                                   981.3725     959.5597     130.0444       0.0000 
 30                              28                              29                                 1858.0831     435.7171     121.0220       0.0000 
 31                              29                              30                                 1510.7672     325.5036     117.7757       0.0000 
 32                              30                              31                                  141.7501     301.9790     132.3765       0.0000 
 33                              32                              31                                  796.7985     376.3174     140.6564       0.0000 
 34                              25                              32                                  964.0511     527.3290     124.4153       0.0000 
 4                               4                               5                                  1083.0823     990.7941     132.2465       0.0000 
 5                               5                               6                                  1366.4506    1013.0987     139.4018       0.0000 
 6                               6                               7                                   478.6656     975.5337     134.4908       0.0000 
 7                               7                               8                                   771.3471     960.1750     141.7266       0.0000 
 8                               8                               9                                   794.3738     951.6696     141.9436       0.0000 
 9                               9                               10                                  742.4887     944.3477     134.4671       0.0000 

[PUMPS]

[VALVES]

[DEMANDS]
 10                                  132.320711    P_10
 11                                  146.679722    P_11
 12                                  156.934222    P_12
 13                                  282.743228    P_13
 14                                  175.544186    P_14
 15                                   81.762664    P_15
 16                                   93.625289    P_16
 17                                  261.729933    P_17
 18                                  347.917292    P_18
 19                                   16.007423    P_19
 2                                   232.358591    P_2
 20                                  359.064305    P_20
 21                                  276.557501    P_21
 22                                  129.421860    P_22
 23                                  281.273046    P_23
 24                                  218.142885    P_24
 25                                   46.415971    P_25
 26                                  251.329066    P_26
 27                                  109.057904    P_27
 28                                   76.593267    P_28
 29                                  101.241390    P_29
 3                                   216.586711    P_3
 30                                   94.094403    P_30
 31                                   26.523532    P_31
 32                                  225.211765    P_32
 4                                    36.143358    P_4
 5                                   214.525079    P_5
 6                                   273.688319    P_6
 7                                   364.818656    P_7
 8                                   158.293601    P_8
 9                                   135.389673    P_9

[EMITTERS]

[STATUS]

[PATTERNS]
 P_29                                  0.6227       0.4770       0.4642       0.3716       0.3521       0.2810
 P_29                                  0.3097       0.3584       0.3554       0.4718       0.5190       0.6515
 P_29                                  0.6861       0.9124       0.9637       1.0241       1.1906       1.1475
 P_29                                  1.2265       1.3848       1.2667       1.3675       1.3437       1.3249
 P_29                                  1.3414       1.1293       1.1620       1.0204       0.9973       0.8666
 P_29                                  0.8854       0.8868       0.8676       0.9579       0.9422       1.0181
 P_29                                  1.0580       1.0100       1.0898       1.1346       1.0409       1.0909
 P_29                                  1.1702       1.0491       0.9609       0.9680       0.7436       0.7735
 P_28                                  0.5875       0.5260       0.4185       0.4027       0.3835       0.3786
 P_28                                  0.3780       0.3835       0.4383       0.5408       0.6023       0.6207
 P_28                                  0.7812       0.8773       0.9284       1.0226       1.0856       1.1781
 P_28                                  1.3989       1.1972       1.3309       1.3931       1.3098       1.1715
 P_28                                  1.2186       1.1720       1.0443       1.0360       1.0389       0.9340
 P_28                                  0.8927       0.9891       0.8777       0.9232       0.9833       0.8702
 P_28                                  0.9422       1.0211       1.0318       0.9802       1.1164       1.0543
 P_28                                  1.0240       1.0310       0.9361       0.9416       0.7721       0.6831
 P_21                                  0.6975       0.5283       0.4848       0.4755       0.4678       0.4692
 P_21                                  0.4359       0.4369       0.5136       0.6113       0.6260       0.7016
 P_21                                  0.8309       0.9110       0.9869       0.9867       1.0316       1.1441
 P_21                                  1.2093       1.1573       1.1512       1.2100       1.2060       1.2187
 P_21                                  1.1500       1.1581       1.0325       1.0131       0.9081       0.8922
 P_21                                  0.9486       0.8878       0.9490       0.9172       0.9142       0.9313
 P_21                                  0.8929       1.0654       1.0300       1.0660       1.1570       1.0977
 P_21                                  1.0071       0.9637       0.9609       0.9199       0.9012       0.7938
 P_20                                  0.6409       0.5638       0.5602       0.4912       0.4364       0.3815
 P_20                                  0.3844       0.4715       0.4500       0.5477       0.5567       0.7542
 P_20                                  0.7119       0.8507       0.9994       1.0356       1.1357       1.1252
 P_20                                  1.1826       1.2331       1.2210       1.3282       1.2084       1.2398
 P_20                                  1.1912       1.2072       1.0080       1.0707       1.0285       0.8943
 P_20                                  0.9420       0.8564       0.9251       0.8788       0.9190       0.9678
 P_20                                  0.9118       1.0397       1.0617       1.1557       1.1109       1.1185
 P_20                                  1.0169       0.9426       0.9612       0.9549       0.7965       0.7185
 P_23                                  0.5604       0.5062       0.4533       0.3762       0.3738       0.3309
 P_23                                  0.3098       0.3601       0.3818       0.4692       0.5810       0.6260
 P_23                                  0.7697       0.7726       0.8577       1.0990       1.1011       1.2547
 P_23                                  1.2659       1.2920       1.2892       1.3058       1.2860       1.3441
 P_23                                  1.2195       1.1562       1.0749       0.9797       0.9925       0.9258
 P_23                                  0.8733       0.8666       0.9059       0.8810       0.8944       0.9308
 P_23                                  0.9009       1.1016       1.1064       1.0582       0.9949       1.0595
 P_23                                  0.9917       1.0115       0.9726       0.8836       0.7952       0.7023
 P_22                                  0.6694       0.5669       0.5226       0.4774       0.4376       0.4342
 P_22                                  0.4225       0.4130       0.4741       0.5191       0.5544       0.6932
 P_22                                  0.7703       0.8461       0.9594       1.0475       1.1658       1.2128
 P_22                                  1.2006       1.4309       1.3421       1.2544       1.2987       1.2171
 P_22                                  1.0698       1.1552       1.1592       1.0139       0.8750       0.9663
 P_22                                  0.9337       0.7961       0.9017       0.8374       0.8961       0.9914
 P_22                                  0.9701       1.0843       1.0830       0.9612       1.0961       0.9747
 P_22                                  1.0185       1.0644       0.9850       0.8167       0.8699       0.7026
 P_25                                  0.6076       0.5765       0.5340       0.5536       0.4538       0.4654
 P_25                                  0.4452       0.5119       0.4854       0.5844       0.5813       0.6888
 P_25                                  0.8247       0.9129       0.9214       0.9310       1.1675       1.1437
 P_25                                  1.2757       1.1535       1.2513       1.2756       1.2176       1.2396
 P_25                                  1.1374       1.1518       1.0413       0.9545       0.9133       0.8962
 P_25                                  0.9037       0.8614       0.8314       0.8883       0.8877       0.8767
 P_25                                  0.8834       1.0608       1.0519       1.0551       0.9933       0.9792
 P_25                                  1.0379       1.0009       0.8518       0.9303       0.7949       0.7050
 P_24                                  0.6255       0.6053       0.6268       0.5311       0.5018       0.4566
 P_24                                  0.4829       0.5448       0.5588       0.5842       0.6336       0.6831
 P_24                                  0.7542       0.8919       0.9708       1.0823       1.1164       1.0881
 P_24                                  1.2353       1.1791       1.1961       1.1217       1.2129       1.2144
 P_24                                  1.2181       1.2469       1.0806       0.9868       0.9321       0.8376
 P_24                                  0.8962       0.8840       0.8677       0.9405       0.9147       0.9502
 P_24                                  1.0420       0.8676       1.0037       0.9862       0.9605       0.9772
 P_24                                  0.9923       0.9698       0.9662       0.8457       0.8326       0.7278
 P_27                                  0.6760       0.6729       0.5769       0.5586       0.5030       0.5541
 P_27                                  0.5140       0.4960       0.6010       0.6036       0.6397       0.6694
 P_27                                  0.8015       0.9100       0.8618       0.9056       1.1771       1.0633
 P_27                                  1.1367       1.1890       1.1396       1.2442       1.2337       1.2042
 P_27                                  1.1523       1.0801       1.0455       0.9636       0.9328       0.8761
 P_27                                  0.8949       0.8940       0.8993       0.9481       0.8849       0.9045
 P_27                                  1.0188       0.9495       1.0414       0.9900       1.0606       1.0428
 P_27                                  0.9567       0.9970       0.8913       0.7912       0.8404       0.8084
 P_26                                  0.5721       0.5051       0.4657       0.3974       0.3800       0.3374
 P_26                                  0.3437       0.4042       0.4167       0.4885       0.5224       0.6316
 P_26                                  0.7243       0.8711       0.9126       1.0972       1.1326       1.2909
 P_26                                  1.2534       1.3646       1.3309       1.3350       1.3555       1.2425
 P_26                                  1.2432       1.1162       1.0843       0.9978       0.9909       0.8879
 P_26                                  0.8970       0.8943       0.8360       0.8332       0.8931       0.9183
 P_26                                  1.0025       1.1271       1.0442       1.1005       1.2100       0.8875
 P_26                                  1.0824       1.1039       0.9416       0.8560       0.8512       0.7247
 P_10                                  0.5317       0.5114       0.4759       0.4425       0.3724       0.3866
 P_10                                  0.4047       0.4141       0.4689       0.5247       0.5722       0.6349
 P_10                                  0.8148       0.8018       0.8293       1.0045       1.0906       1.1215
 P_10                                  1.1460       1.3073       1.3594       1.3151       1.1501       1.1482
 P_10                                  1.1503       1.1713       1.0106       1.0606       1.0126       1.0222
 P_10                                  0.9573       0.9208       0.8444       0.9504       0.8721       0.9257
 P_10                                  0.9531       0.9835       0.9650       0.9835       1.0524       0.9832
 P_10                                  1.0710       1.0141       1.0047       0.8562       0.7516       0.7528
 P_11                                  0.5780       0.5953       0.5417       0.5298       0.4624       0.4828
 P_11                                  0.4971       0.4495       0.5355       0.5863       0.6129       0.6776
 P_11                                  0.7473       0.8826       0.8953       1.0469       1.0352       1.1268
 P_11                                  1.1658       1.1499       1.1316       1.1846       1.1184       1.1454
 P_11                                  1.1292       1.1343       0.9765       1.0193       0.9180       0.9353
 P_11                                  0.9369       0.9015       0.8919       0.8705       0.8398       0.9308
 P_11                                  1.0048       0.9622       1.0079       0.9853       1.0757       1.0149
 P_11                                  1.0210       0.9456       0.9339       0.8498       0.7580       0.7750
 P_12                                  0.6399       0.5108       0.4907       0.3804       0.3645       0.3627
 P_12                                  0.3571       0.3562       0.4285       0.4854       0.5547       0.6827
 P_12                                  0.7580       0.8990       0.9290       1.0433       1.0665       1.1544
 P_12                                  1.3691       1.2613       1.3590       1.3979       1.2479       1.2400
 P_12                                  1.1960       1.0663       1.0823       0.9822       0.9798       0.9500
 P_12                                  0.9106       0.9037       0.8664       0.9002       0.9246       1.0056
 P_12                                  0.9574       1.1502       1.0568       1.0568       1.1262       1.0698
 P_12                                  1.0005       1.0208       0.8829       0.9330       0.8019       0.7562
 P_13                                  0.6007       0.5717       0.5258       0.4221       0.4351       0.4002
 P_13                                  0.4233       0.4696       0.4951       0.4798       0.6058       0.6554
 P_13                                  0.8185       0.8699       0.9380       1.0852       1.0915       1.0601
 P_13                                  1.0895       1.2239       1.1303       1.3729       1.2618       1.1640
 P_13                                  1.2503       1.0851       1.0259       0.9778       0.9319       0.8815
 P_13                                  0.8666       0.8661       0.9171       0.8858       0.8965       0.9208
 P_13                                  1.1106       1.0274       0.9813       1.1504       1.0462       1.1140
 P_13                                  0.9927       0.9557       0.9909       0.8641       0.8293       0.6990
 P_14                                  0.5984       0.5285       0.4693       0.4190       0.3539       0.3462
 P_14                                  0.3613       0.3823       0.3948       0.4556       0.5520       0.6758
 P_14                                  0.7834       0.7783       0.9103       1.0485       1.2264       1.2786
 P_14                                  1.2456       1.3430       1.3698       1.2955       1.3216       1.2221
 P_14                                  1.2289       1.2001       1.0707       1.0835       0.9048       0.9387
 P_14                                  0.9357       0.8828       0.8406       0.8313       0.9740       0.9715
 P_14                                  0.9558       0.9659       1.0116       1.0723       1.0383       1.0461
 P_14                                  1.0270       0.9710       0.9677       0.9187       0.7257       0.6869
 P_15                                  0.5684       0.5290       0.4510       0.4221       0.3745       0.3429
 P_15                                  0.3635       0.3809       0.4259       0.4930       0.5355       0.6575
 P_15                                  0.7264       0.8005       0.9507       1.0475       1.1820       1.2375
 P_15                                  1.3711       1.3573       1.3912       1.3298       1.4125       1.2034
 P_15                                  1.2011       1.0996       1.0270       0.9280       1.0034       0.8707
 P_15                                  0.8420       0.9241       0.8675       0.8658       0.9805       0.9101
 P_15                                  0.9960       0.9106       1.1392       0.9855       1.0752       1.0730
 P_15                                  0.9744       0.9478       0.9521       0.8147       0.8179       0.7242
 P_16                                  0.7146       0.6518       0.5468       0.5117       0.4558       0.5563
 P_16                                  0.5006       0.4435       0.5609       0.5894       0.5723       0.7040
 P_16                                  0.7280       0.8860       0.9175       1.0379       1.0549       1.0735
 P_16                                  1.1132       1.2261       1.1120       1.2060       1.2012       1.1520
 P_16                                  1.0711       1.0864       0.9409       0.9461       0.9313       0.9427
 P_16                                  0.8819       0.8787       0.8614       0.8438       0.9187       0.8958
 P_16                                  0.9324       1.0785       1.0953       0.9855       1.1407       1.0893
 P_16                                  1.0826       1.0532       0.9674       0.9446       0.8450       0.8031
 P_17                                  0.5634       0.5123       0.5376       0.4085       0.4325       0.3797
 P_17                                  0.3900       0.3953       0.4217       0.4658       0.6079       0.7248
 P_17                                  0.7644       0.9134       0.8125       1.0313       1.0182       1.1634
 P_17                                  1.1334       1.2830       1.3669       1.2358       1.2679       1.3140
 P_17                                  1.2167       1.1539       0.9997       1.0258       0.9077       0.9417
 P_17                                  0.9184       0.8721       0.9541       0.9238       0.9764       0.8556
 P_17                                  0.9589       1.0303       1.0988       1.1197       1.0854       1.1107
 P_17                                  1.1786       1.0269       1.0226       0.8821       0.8362       0.7949
 P_18                                  0.6598       0.5894       0.4540       0.4251       0.4243       0.4115
 P_18                                  0.4009       0.4512       0.4998       0.5540       0.5643       0.6653
 P_18                                  0.7638       0.8667       0.9681       1.0624       1.1397       1.1342
 P_18                                  1.1605       1.2027       1.1618       1.2557       1.1624       1.1895
 P_18                                  1.2767       1.0846       1.1007       1.1014       0.9457       0.8202
 P_18                                  0.9462       0.7961       0.8217       0.8532       0.9095       0.9653
 P_18                                  0.9896       1.0318       0.9985       1.0904       0.9928       1.1611
 P_18                                  1.0414       0.9908       0.8548       0.8734       0.9198       0.6958
 P_19                                  0.5408       0.5460       0.4247       0.3938       0.3169       0.3195
 P_19                                  0.3048       0.3568       0.3666       0.4183       0.4894       0.6489
 P_19                                  0.7553       0.7951       0.9444       1.0017       1.1004       1.2537
 P_19                                  1.2913       1.2399       1.3453       1.3237       1.3059       1.2839
 P_19                                  1.1761       1.1647       1.0625       0.9318       0.9277       0.8963
 P_19                                  0.8038       0.8671       0.8275       0.9181       0.9122       0.9129
 P_19                                  1.0092       0.9780       0.9905       1.1746       1.0898       1.0587
 P_19                                  1.0697       1.0320       1.0529       0.9669       0.8144       0.7581
 P_32                                  0.5853       0.5083       0.5389       0.4077       0.4050       0.3817
 P_32                                  0.3880       0.3857       0.4290       0.4914       0.5532       0.6713
 P_32                                  0.7019       0.7970       0.9397       0.9808       1.1644       1.1208
 P_32                                  1.2629       1.3109       1.2275       1.2252       1.3442       1.1706
 P_32                                  1.2407       1.1684       1.0297       1.0286       1.0390       0.9334
 P_32                                  0.9705       0.9142       0.9234       0.8417       0.9632       0.9586
 P_32                                  0.9582       1.0335       1.1394       1.1022       1.1322       0.9894
 P_32                                  1.0951       1.0905       0.9939       0.9276       0.8337       0.7109
 P_30                                  0.6504       0.6523       0.6332       0.4917       0.5101       0.4902
 P_30                                  0.5156       0.4768       0.4719       0.5795       0.6232       0.6865
 P_30                                  0.8448       0.8143       0.9958       1.0476       1.0937       1.1030
 P_30                                  1.1951       1.2249       1.2312       1.2223       1.2165       1.1701
 P_30                                  1.1235       1.1124       1.0785       0.9599       0.9858       0.9355
 P_30                                  0.9660       0.7970       0.9251       0.8459       0.8608       1.0047
 P_30                                  0.8950       0.9265       0.9431       1.0550       1.0271       0.9504
 P_30                                  1.0309       0.9632       0.9956       0.9533       0.8283       0.8014
 P_31                                  0.6005       0.5250       0.4823       0.4221       0.3785       0.3509
 P_31                                  0.3551       0.3897       0.3847       0.4476       0.5062       0.6163
 P_31                                  0.7346       0.8073       0.9277       0.9545       1.0856       1.2397
 P_31                                  1.1068       1.1743       1.3515       1.2647       1.2675       1.3199
 P_31                                  1.2391       1.0698       1.0705       1.0277       1.0572       0.9091
 P_31                                  0.8760       0.9002       0.9881       0.8545       0.9524       0.8655
 P_31                                  1.0080       1.0653       1.0223       0.9937       0.9891       1.0851
 P_31                                  1.0162       1.0407       0.9203       0.8745       0.8537       0.7010
 P_8                                   0.5866       0.5493       0.4793       0.3811       0.3652       0.3870
 P_8                                   0.3630       0.4061       0.4632       0.5178       0.5520       0.6550
 P_8                                   0.7878       0.8526       1.0051       1.0330       1.1779       1.2010
 P_8                                   1.2349       1.3593       1.3234       1.2122       1.2716       1.1216
 P_8                                   1.1782       1.1649       1.0387       1.0179       1.0123       0.9044
 P_8                                   0.9476       0.8627       0.8325       0.8933       0.9033       0.9235
 P_8                                   0.9503       0.9749       1.0187       1.0000       1.0819       1.0463
 P_8                                   1.0464       1.0025       0.9065       0.9151       0.7469       0.6862
 P_9                                   0.6343       0.5997       0.5662       0.5033       0.4279       0.4666
 P_9                                   0.4585       0.4652       0.4616       0.5240       0.6527       0.6524