[TITLE]


[JUNCTIONS]
;ID              	Elev        	Demand      	Pattern         
 1               	30.0000     	30.000000   	1               	;
 2               	30.0000     	30.000000   	1               	;
 3               	40.0000     	50.000000   	1               	;
 4               	40.0000     	50.000000   	1               	;
 5               	40.0000     	20.000000   	1               	;
 6               	30.0000     	30.000000   	1               	;
 7               	40.0000     	40.000000   	1               	;
 9               	40.0000     	20.000000   	1               	;
 10              	50.0000     	50.000000   	1               	;
 11              	50.0000     	0.000000    	1               	;
 12              	50.0000     	50.000000   	1               	;
 13              	50.0000     	40.000000   	1               	;
 14              	50.0000     	30.000000   	1               	;
 15              	40.0000     	100.000000  	1               	;
 16              	35.0000     	40.000000   	1               	;
 17              	35.0000     	30.000000   	1               	;
 18              	35.0000     	50.000000   	1               	;
 19              	35.0000     	30.000000   	1               	;
 20              	35.0000     	50.000000   	1               	;
 21              	50.0000     	50.000000   	1               	;
 22              	50.0000     	50.000000   	1               	;
 23              	40.0000     	50.000000   	1               	;
 24              	40.0000     	0.000000    	1               	;
 25              	30.0000     	30.000000   	1               	;
 26              	35.0000     	20.000000   	1               	;
 27              	30.0000     	30.000000   	1               	;
 28              	30.0000     	50.000000   	1               	;
 29              	30.0000     	30.000000   	1               	;
 30              	30.0000     	20.000000   	1               	;
 31              	30.0000     	20.000000   	1               	;
 32              	50.0000     	40.000000   	1               	;
 33              	50.0000     	40.000000   	1               	;
 34              	50.0000     	50.000000   	1               	;
 35              	50.0000     	40.000000   	1               	;
 36              	50.0000     	50.000000   	1               	;
 37              	45.0000     	50.000000   	1               	;
 38              	40.0000     	50.000000   	1               	;
 39              	30.0000     	0.000000    	1               	;

[RESERVOIRS]
;ID              	Head        	Pattern         
 8               	0.0000      	                	;

[TANKS]
;ID              	Elevation   	InitLevel   	MinLevel    	MaxLevel    	Diameter    	MinVol      	VolCurve
 42              	100.0000    	10.0000     	0.0000      	20.0000     	20.0000     	0.0000      	                	;

[PIPES]
;ID              	Node1           	Node2           	Length      	Diameter    	Roughness   	MinorLoss   	Status
 1               	1               	2               	100.0000    	254.0000    	100.0000    	0.0000      	Open  	;
 2               	2               	3               	100.0000    	305.0000    	100.0000    	0.0000      	Open  	;
 6               	1               	6               	100.0000    	254.0000    	100.0000    	0.0000      	Open  	;
 8               	2               	6               	100.0000    	203.0000    	100.0000    	0.0000      	Open  	;
 9               	6               	5               	100.0000    	203.0000    	100.0000    	0.0000      	Open  	;
 10              	5               	4               	100.0000    	203.0000    	100.0000    	0.0000      	Open  	;
 11              	5               	10              	100.0000    	254.0000    	100.0000    	0.0000      	Open  	;
 12              	4               	9               	100.0000    	203.0000    	100.0000    	0.0000      	Open  	;
 14              	10              	9               	100.0000    	254.0000    	100.0000    	0.0000      	Open  	;
 15              	9               	3               	100.0000    	254.0000    	100.0000    	0.0000      	Open  	;
 16              	3               	7               	100.0000    	254.0000    	100.0000    	0.0000      	Open  	;
 17              	7               	2               	100.0000    	305.0000    	100.0000    	0.0000      	Open  	;
 22              	3               	5               	100.0000    	254.0000    	100.0000    	0.0000      	Open  	;
 24              	11              	12              	100.0000    	254.0000    	100.0000    	0.0000      	Open  	;
 26              	13              	14              	100.0000    	254.0000    	100.0000    	0.0000      	Open  	;
 28              	11              	13              	100.0000    	254.0000    	100.0000    	0.0000      	Open  	;
 37              	17              	20              	100.0000    	254.0000    	100.0000    	0.0000      	Open  	;
 38              	20              	15              	100.0000    	254.0000    	100.0000    	0.0000      	Open  	;
 42              	21              	22              	100.0000    	102.0000    	100.0000    	0.0000      	Open  	;
 43              	24              	22              	100.0000    	254.0000    	100.0000    	0.0000      	Open  	;
 44              	21              	23              	100.0000    	102.0000    	100.0000    	0.0000      	Open  	;
 46              	22              	10              	200.0000    	356.0000    	100.0000    	0.0000      	Open  	;
 47              	23              	15              	200.0000    	356.0000    	100.0000    	0.0000      	Open  	;
 49              	7               	20              	1000.0000   	254.0000    	100.0000    	0.0000      	Open  	;
 50              	9               	15              	200.0000    	305.0000    	100.0000    	0.0000      	Open  	;
 5               	14              	12              	100.0000    	154.0000    	100.0000    	0.0000      	Open  	;
 18              	25              	26              	200.0000    	152.0000    	100.0000    	0.0000      	Open  	;
 19              	26              	30              	100.0000    	76.0000     	100.0000    	0.0000      	Open  	;
 20              	30              	28              	100.0000    	76.0000     	100.0000    	0.0000      	Open  	;
 21              	28              	27              	100.0000    	76.0000     	100.0000    	0.0000      	Open  	;
 27              	27              	29              	100.0000    	76.0000     	100.0000    	0.0000      	Open  	;
 29              	29              	31              	100.0000    	76.0000     	100.0000    	0.0000      	Open  	;
 39              	27              	31              	100.0000    	76.0000     	100.0000    	0.0000      	Open  	;
 40              	31              	25              	100.0000    	152.0000    	100.0000    	0.0000      	Open  	;
 51              	33              	22              	100.0000    	152.0000    	100.0000    	0.0000      	Open  	;
 52              	23              	34              	100.0000    	76.0000     	100.0000    	0.0000      	Open  	;
 53              	34              	32              	100.0000    	76.0000     	100.0000    	0.0000      	Open  	;
 54              	32              	33              	100.0000    	76.0000     	100.0000    	0.0000      	Open  	;
 55              	14              	35              	100.0000    	76.0000     	100.0000    	0.0000      	Open  	;
 56              	35              	36              	100.0000    	76.0000     	100.0000    	0.0000      	Open  	;
 57              	36              	37              	100.0000    	76.0000     	100.0000    	0.0000      	Open  	;
 58              	12              	37              	100.0000    	101.0000    	100.0000    	0.0000      	Open  	;
 59              	23              	38              	100.0000    	356.0000    	100.0000    	0.0000      	Open  	;
 60              	38              	22              	100.0000    	152.0000    	100.0000    	0.0000      	Open  	;
 61              	38              	24              	100.0000    	356.0000    	100.0000    	0.0000      	Open  	;
 4               	39              	1               	300.0000    	356.0000    	100.0000    	0.0000      	Open  	;
 23              	39              	2               	300.0000    	356.0000    	100.0000    	0.0000      	Open  	;
 7               	24              	25              	100.0000    	254.0000    	100.0000    	0.0000      	Open  	;
 25              	24              	11              	500.0000    	305.0000    	100.0000    	0.0000      	Open  	;
 45              	42              	22              	100.0000    	356.0000    	100.0000    	0.0000      	Open  	;
 48              	17              	16              	200.0000    	254.0000    	100.0000    	0.0000      	Open  	;
 62              	16              	19              	200.0000    	254.0000    	100.0000    	0.0000      	Open  	;
 63              	18              	19              	200.0000    	254.0000    	100.0000    	0.0000      	Open  	;
 65              	19              	26              	300.0000    	254.0000    	100.0000    	0.0000      	Open  	;
 66              	18              	17              	200.0000    	254.0000    	100.0000    	0.0000      	Open  	;
 67              	15              	16              	300.0000    	152.0000    	100.0000    	0.0000      	Open  	;
 68              	21              	34              	76.0000     	76.0000     	100.0000    	0.0000      	Open  	;

[PUMPS]
;ID              	Node1           	Node2           	Parameters
 3               	8               	39              	POWER 900.0000	PATTERN 2	;

[VALVES]
;ID              	Node1           	Node2           	Diameter    	Type	Setting     	MinorLoss   

[TAGS]

[DEMANDS]
;Junction        	Demand      	Pattern         	Category

[STATUS]
;ID              	Status/Setting

[PATTERNS]
;ID              	Multipliers
;
 1               	0.2500      	0.3000      	0.3000      	0.3000      	0.2500      	0.2000      
 1               	0.2000      	0.2000      	0.2000      	0.2000      	0.3500      	0.5000      
 1               	0.6500      	0.8000      	0.9000      	1.0000      	1.0000      	1.0000      
 1               	1.0000      	1.0000      	1.0000      	1.0000      	0.9500      	0.9000      
 1               	0.7500      	0.6000      	0.5000      	0.4000      	0.4000      	0.4000      
 1               	0.4000      	0.4000      	0.4000      	0.4000      	0.6000      	0.8000      
 1               	0.8000      	0.8000      	0.8000      	0.8000      	0.8000      	0.8000      
 1               	0.7000      	0.6000      	0.5000      	0.4000      	0.3000      	0.2000      
;
 2               	0.2500      	0.3000      	0.3000      	0.3000      	0.2500      	0.2000      
 2               	0.2000      	0.2000      	0.2000      	0.2000      	0.3500      	0.5000      
 2               	0.5000      	0.5000      	0.6500      	0.8000      	0.9000      	1.0000      
 2               	1.0000      	1.0000      	1.0000      	1.0000      	0.9500      	0.9000      
 2               	0.7500      	0.6000      	0.5500      	0.5000      	0.4500      	0.4000      
 2               	0.4000      	0.4000      	0.6000      	0.8000      	0.8000      	0.8000      
 2               	0.8000      	0.8000      	0.7000      	0.6000      	0.6000      	0.6000      
 2               	0.5500      	0.5000      	0.4500      	0.4000      	0.3000      	0.2000      
;
 3               	1.0000      	1.0000      	1.0000      	1.0000      	1.0000      	1.0000      
 3               	1.0000      	1.0000      	1.0000      	1.0000      	1.0000      	1.0000      
 3               	1.0000      	1.0000      	1.0000      	1.0000      	1.0000      	1.0000      
 3               	1.0000      	1.0000      	1.0000      	1.0000      	1.0000      	1.0000      
 3               	1.2500      	1.5000      	1.5000      	1.5000      	1.5000      	1.5000      
 3               	1.3500      	1.2000      	1.2000      	1.2000      	1.2000      	1.2000      
 3               	1.1000      	1.0000      	1.0000      	1.0000      	1.0000      	1.0000      
 3               	1.0000      	1.0000      	1.0000      	1.0000      	1.0000      	1.0000      

[CURVES]
;ID              	X-Value     	Y-Value

[CONTROLS]


[RULES]

[ENERGY]
 Global Efficiency  	90.0000
 Global Price       	0
 Demand Charge      	0.0000

[EMITTERS]
;Junction        	Coefficient

[QUALITY]
;Node            	InitQual

[SOURCES]
;Node            	Type        	Quality     	Pattern

[REACTIONS]
;Type     	Pipe/Tank       	Coefficient


[REACTIONS]
 Order Bulk            	1.00
 Order Tank            	1.00
 Order Wall            	1
 Global Bulk           	0.000000
 Global Wall           	0.000000
 Limiting Potential    	0
 Roughness Correlation 	0

[MIXING]
;Tank            	Model

[TIMES]
 Duration           	24:00 
 Hydraulic Timestep 	0:30
 Quality Timestep   	0:05 
 Pattern Timestep   	0:30
 Pattern Start      	0:00 
 Report Timestep    	0:30
 Report Start       	0:00
 Start ClockTime    	0:00:00
 Statistic          	NONE

[REPORT]
 Status             	No
 Summary            	No
 Page               	0

[OPTIONS]
 Units              	CMH
 Headloss           	H-W
 Specific Gravity   	1.000000
 Viscosity          	1.000000
 Trials             	40
 Accuracy           	0.00100000
 CHECKFREQ          	2
 MAXCHECK           	10
 DAMPLIMIT          	0.00000000
 Unbalanced         	Continue 10
 Pattern            	1
 Demand Multiplier  	1.0000
 Emitter Exponent   	0.5000
 Quality            	AGE mg/L
 Diffusivity        	1.000000
 Tolerance          	0.01000000

[COORDINATES]
;Node            	X-Coord         	Y-Coord
 1               	523.65          	8018.02         
 2               	557.43          	7297.30         
 3               	1244.37         	6801.80         
 4               	1908.78         	7297.30         
 5               	1920.05         	7984.23         
 6               	1123.69         	7628.93         
 7               	524.96          	6247.24         
 9               	1886.26         	6599.10         
 10              	2550.68         	7240.99         
 11              	5118.24         	6936.94         
 12              	5769.76         	6659.45         
 13              	5444.43         	6379.79         
 14              	6052.93         	6092.34         
 15              	1649.44         	6074.27         
 16              	2194.46         	5479.03         
 17              	1391.23         	5344.22         
 18              	2087.74         	4849.93         
 19              	2980.84         	5136.39         
 20              	1222.72         	5726.18         
 21              	3195.68         	6356.96         
 22              	3303.69         	6746.18         
 23              	2910.31         	6077.29         
 24              	3994.53         	6285.62         
 25              	4479.87         	5957.43         
 26              	3511.96         	5553.21         
 27              	5252.54         	5364.74         
 28              	4664.96         	5176.27         
 29              	5496.44         	5763.85         
 30              	4055.20         	5242.79         
 31              	4543.01         	5553.21         
 32              	2413.75         	6436.86         
 33              	2419.46         	6767.90         
 34              	2807.57         	6379.79         
 35              	6249.19         	6465.40         
 36              	6254.89         	6870.63         
 37              	6043.72         	7298.69         
 38              	3543.84         	6054.46         
 39              	-182.93         	7649.67         
 8               	-1437.17        	7640.13         
 42              	3498.42         	7143.44         

[VERTICES]
;Link            	X-Coord         	Y-Coord

[LABELS]
;X-Coord           Y-Coord          Label & Anchor Node

[BACKDROP]
 DIMENSIONS     	0.00            	0.00            	10000.00        	10000.00        
 UNITS          	None
 FILE           	
 OFFSET         	0.00            	0.00            

[END]
